$# LS-DYNA Keyword file created by LS-PrePost 4.0 (Beta) - 08Apr2012(15:11)
$# Created on May-07-2020 (16:16:11)
$$ HM_OUTPUT_DECK created 12:52:40 06-17-2020 by HyperMesh Version 2017.3.0.17
$$ Ls-dyna Input Deck Generated by HyperMesh Version  : 2017.3.0.17
$$ Generated using HyperMesh-Ls-dyna 971_R8.0 Template Version : 2017.3
*KEYWORD
*TITLE
                                                                                
*CONTROL_TERMINATION
$$  ENDTIM    ENDCYC     DTMIN    ENDENG    ENDMAS     NOSOL
      0.01         0       0.0       0.0       0.0          
*CONTROL_TIMESTEP
$$  DTINIT    TSSFAC      ISDO    TSLIMT     DT2MS      LCTM     ERODE     MSIST
       0.0       0.4         0       0.0       0.0         0         0         0
$$  DT2MSF   DT2MSLC     IMSCL                         RMSCL
       0.0         0         0                              
*CONTROL_HOURGLASS_936
$$     IHQ        QH
         6      25.0
$$DATABASE_OPTION -- Control Cards for ASCII output
*DATABASE_GLSTAT
$$      DT    BINARY      LCUR      IOPT
1.0000E-04         0         0         1
*DATABASE_MATSUM
$$      DT    BINARY      LCUR      IOPT
1.0000E-04         0         0         1
*DATABASE_RWFORC
$$      DT    BINARY      LCUR      IOPT
1.0000E-04         0         0         1
*DATABASE_BINARY_D3PLOT
$$ DT/CYCL      LCDT      BEAM     NPLTC    PSETID
1.0000E-04         0         0         0         0
         0
*DATABASE_BINARY_D3THDT
$$ DT/CYCL      LCID
1.0000E-04         0
*DATABASE_BINARY_D3DUMP
$$ DT/CYCL        NR
999100000.         0
*DATABASE_EXTENT_BINARY
$$   NEIPH     NEIPS    MAXINT    STRFLG    SIGFLG    EPSFLG    RLTFLG    ENGFLG
         0         0         0         0         1         1         1         1
$$  CMPFLG    IEVERP    BEAMIP     DCOMP      SHGE     STSSZ    N3THDT   IALEMAT
         0         0         0         1         1         1         2         0
$$ NINTSLD   PKP_SEN      SCLP     HYDRO     MSSCL     THERM    INTOUT    NODOUT
         0         0       1.0         0         0         0    STRESS    STRESS
*NODE
  108475          0.0015           0.005             0.0                
  108476 0.0014968021519           0.005 -9.81055942E-05                
  108477 0.0014871809701           0.005 -1.95791091E-04                
  108478 0.0014711779199           0.005 -2.92635483E-04                
  108479 0.0014489020667           0.005 -3.88232137E-04                
  108480 0.0014204082586           0.005 -4.82163635E-04                
  108481 0.0013858192992           0.005 -5.74025149E-04                
  108482 0.0013453214876           0.005 -6.63439136E-04                
  108483 0.0012990500534           0.005 -7.50006900E-04                
  108484 0.0012472044185           0.005 -8.33355350E-04                
  108485 0.0011900409575           0.005 -9.13150541E-04                
  108486 0.0011277700833           0.005 -9.89027821E-04                
  108487 1.060660173E-03           0.005 -1.06066017E-03                
  108488 9.890278213E-04           0.005 -0.001127770083                
  108489 9.131505411E-04           0.005 -0.001190040958                
  108490 8.333553496E-04           0.005 -0.001247204418                
  108491 7.500069003E-04           0.005 -0.001299050053                
  108492 6.634391360E-04           0.005 -0.001345321488                
  108493 5.740251487E-04           0.005 -0.001385819299                
  108494 4.821636348E-04           0.005 -0.001420408259                
$ ... 19205 like lines cut
$#     mid        ro        pr         n        nv         g      sigf
$#     c10       c01       c11       c20       c02       c30
$#      gi     betai
*MAT_HYPERELASTIC_RUBBER_TITLE
Yeoh                                                                            
         2    1000.0     0.495         0         0       0.0       0.0          
  910941.6 0.000e+00       0.0      73.6       0.0       0.0
$$ HM Number Viscoelastic Constants =          1
       0.0       0.0       0.0       0.0
$# title
$#     ihq        qh
$#  endtim    endcyc     dtmin    endeng    endmas
$#  dtinit    tssfac      isdo    tslimt     dt2ms      lctm     erode     ms1st
$#  dt2msf   dt2mslc     imscl
$#      dt    binary      lcur     ioopt
$#      dt    binary      lcur     ioopt
$#      dt    binary      lcur     ioopt
$#      dt      lcdt      beam     npltc    psetid
$#      dt      lcdt      beam     npltc    psetid
$#   ioopt
$#      dt      lcdt      beam     npltc    psetid
$#   neiph     neips    maxint    strflg    sigflg    epsflg    rltflg    engflg
$#  cmpflg    ieverp    beamip     dcomp      shge     stssz    n3thdt   ialemat
$# nintsld   pkp_sen      sclp    unused     msscl     therm    intout    nodout
$#    nsid       cid      dofx      dofy      dofz     dofrx     dofry     dofrz
$#     sid       da1       da2       da3       da4    solver
$#    nid1      nid2      nid3      nid4      nid5      nid6      nid7      nid8
$#    nsid       cid      dofx      dofy      dofz     dofrx     dofry     dofrz
$#     sid       da1       da2       da3       da4    solver
$#    nid1      nid2      nid3      nid4      nid5      nid6      nid7      nid8
$#    nsid       cid      dofx      dofy      dofz     dofrx     dofry     dofrz
$#     sid       da1       da2       da3       da4    solver
$#    nid1      nid2      nid3      nid4      nid5      nid6      nid7      nid8
$#    nsid       cid      dofx      dofy      dofz     dofrx     dofry     dofrz
$#     sid       da1       da2       da3       da4    solver
$#    nid1      nid2      nid3      nid4      nid5      nid6      nid7      nid8
$#     cid                                                                 title
$#    ssid      msid     sstyp     mstyp    sboxid    mboxid       spr       mpr
$#      fs        fd        dc        vc       vdc    penchk        bt        dt
$#     sfs       sfm       sst       mst      sfst      sfmt       fsf       vsf
$# title
$#     pid     secid       mid     eosid      hgid      grav    adpopt      tmid
$#   secid    elform       aet
$#     mid        ro        mt       lmc       nhv    iortho     ibulk        ig
$#   ivect     ifail    itherm    ihyper      ieos      lmca    unused    unused
$# p1             p2        p3        p4        p5        p6        p7        p8
*MAT_USER_DEFINED_MATERIAL_MODELS
$HMNAME MATERIALS         1MATL_USER_DEF_1                                                                 
         1    1000.0        45         8         0         0         3         4
         0         0         0         1         0         0
 1440000.0     0.499480000000. 2643600.0    7600.0     100.0       0.0       0.0
*PART
$HWCOLOR COMPS      28       8
Good                                                                            
        28         1         2                             0         0          
*SECTION_SOLID
$HMNAME PROPERTIES         1Solid                                                                           
         1         1
*BOUNDARY_SPC_SET
$HMNAME LOADCOLS       1Sym Fix Y                                                               
$HWCOLOR LOADCOLS       1       8
         2         0         0         1         0         1         0         1
$HMNAME LOADCOLS       2Sym Fix X                                                               
$HWCOLOR LOADCOLS       2       8
         3         0         1         0         0         0         1         1
$HMNAME LOADCOLS       3Sym Fix Z                                                               
$HWCOLOR LOADCOLS       3       8
         4         0         0         0         1         1         1         0
$HMNAME LOADCOLS       4Non Homo BC                                                             
$HWCOLOR LOADCOLS       4      20
         1         0         1         0         1         1         1         1
*RIGIDWALL_GEOMETRIC_FLAT_MOTION_ID
$HWCOLOR RIGIDWALLS       3      24
         3rigidwall_Compress_Disp                                               
         0         0         0       0.01.0000E+20
       0.0     0.005       0.0       0.0    -0.995       0.0       0.0
       0.0       0.0       0.0       0.0       0.0
         1         1       0.0      -1.0       0.0
*CONTACT_AUTOMATIC_SINGLE_SURFACE_ID
$HWCOLOR GROUPS       1       4
         1group1                                                                
         0                   5                   0         0         0         0
       0.0       0.0       0.0       0.0       0.0         0       0.0       0.0
       0.0       0.0       0.0       0.0       0.0       0.0       0.0       0.0
*ELEMENT_SOLID
   96249      28  108535  108541  108552  108536  108794  108797  108796  108795
   96250      28  108541  108542  108553  108552  108797  108799  108798  108796
   96251      28  108542  108543  108554  108553  108799  108801  108800  108798
   96252      28  108543  108544  108555  108554  108801  108803  108802  108800
   96253      28  108544  108545  108556  108555  108803  108805  108804  108802
   96254      28  108545  108546  108557  108556  108805  108807  108806  108804
   96255      28  108546  108547  108558  108557  108807  108809  108808  108806
   96256      28  108547  108548  108559  108558  108809  108811  108810  108808
   96257      28  108548  108549  108560  108559  108811  108813  108812  108810
   96258      28  108549  108550  108561  108560  108813  108815  108814  108812
   96259      28  108550  108551  108562  108561  108815  108817  108816  108814
   96260      28  108551  108505  108504  108562  108817  108819  108818  108816
   96261      28  108536  108552  108563  108537  108795  108796  108821  108820
   96262      28  108552  108553  108564  108563  108796  108798  108822  108821
   96263      28  108553  108554  108565  108564  108798  108800  108823  108822
   96264      28  108554  108555  108566  108565  108800  108802  108824  108823
   96265      28  108555  108556  108567  108566  108802  108804  108825  108824
   96266      28  108556  108557  108568  108567  108804  108806  108826  108825
   96267      28  108557  108558  108569  108568  108806  108808  108827  108826
   96268      28  108558  108559  108570  108569  108808  108810  108828  108827
$ ... 17260 like lines cut
$$
$$ Sets Defined In HyperMesh
$$
*SET_NODE_LIST
$HMSET
$HMNAME SETS       1Load Face                                                               
         1       0.0       0.0       0.0       0.0MECH      
    108475    108476    108477    108478    108479    108480    108481    108482
    108483    108484    108485    108486    108487    108488    108489    108490
    108491    108492    108493    108494    108495    108496    108497    108498
    108499    108500    108501    108502    108503    108504    108505    108506
    108507    108508    108509    108510    108511    108512    108513    108514
    108515    108516    108517    108518    108519    108520    108521    108522
    108523    108524    108525    108526    108527    108528    108529    108530
    108531    108532    108533    108534    108535    108536    108537    108538
    108539    108540    108541    108542    108543    108544    108545    108546
    108547    108548    108549    108550    108551    108552    108553    108554
    108555    108556    108557    108558    108559    108560    108561    108562
    108563    108564    108565    108566    108567    108568    108569    108570
    108571    108572    108573    108574    108575    108576    108577    108578
    108579    108580    108581    108582    108583    108584    108585    108586
    108587    108588    108589    108590    108591    108592    108593    108594
    108595    108596    108597    108598    108599    108600    108601    108602
    108603    108604    108605    108606    108607    108608    108609    108610
    108611    108612    108613    108614    108615    108616    108617    108618
    108619    108620    108621    108622    108623    108624    108625    108626
    108627    108628    108629    108630    108631    108632    108633    108634
$ ... 77 like lines cut
*SET_NODE_LIST
$HMSET
$HMNAME SETS       2Sym Fix Y                                                               
         2       0.0       0.0       0.0       0.0MECH      
    116131    116132    116133    116134    116135    116136    116137    116138
    116139    116140    116141    116142    116143    116144    116145    116146
    116147    116148    116149    116150    116151    116152    116153    116154
    116155    116156    116157    116158    116159    116160    116161    116162
    116163    116164    116165    116166    116167    116168    116169    116170
    116171    116172    116173    116174    116175    116176    116177    116178
    116179    116180    116181    116182    116183    116184    116185    116186
    116187    116188    116189    116190    116191    116192    116193    116194
    116195    116196    116197    116198    116199    116200    116201    116202
    116203    116204    116205    116206    116207    116208    116209    116210
    116211    116212    116213    116214    116215    116216    116217    116218
    116219    116220    116221    116222    116223    116224    116225    116226
    116227    116228    116229    116230    116231    116232    116233    116234
    116235    116236    116237    116238    116239    116240    116241    116242
    116243    116244    116245    116246    116247    116248    116249    116250
    116251    116252    116253    116254    116255    116256    116257    116258
    116259    116260    116261    116262    116263    116264    116265    116266
    116267    116268    116269    116270    116271    116272    116273    116274
    116275    116276    116277    116278    116279    116280    116281    116282
    116283    116284    116285    116286    116287    116288    116289    116290
$ ... 77 like lines cut
*SET_NODE_LIST
$HMSET
$HMNAME SETS       3Sym Fix X                                                               
         3       0.0       0.0       0.0       0.0MECH      
    108499    108500    108501    108502    108503    108504    108505    108506
    108507    108508    108509    108510    108511    108512    108513    108514
    108515    108516    108517    108818    108819    108832    108845    108858
    108871    108884    109029    109030    109031    109032    109033    109034
    109035    109036    109037    109038    109039    109040    109137    109138
    109151    109164    109177    109190    109203    109348    109349    109350
    109351    109352    109353    109354    109355    109356    109357    109358
    109359    109456    109457    109470    109483    109496    109509    109522
    109667    109668    109669    109670    109671    109672    109673    109674
    109675    109676    109677    109678    109775    109776    109789    109802
    109815    109828    109841    109986    109987    109988    109989    109990
    109991    109992    109993    109994    109995    109996    109997    110094
    110095    110108    110121    110134    110147    110160    110305    110306
    110307    110308    110309    110310    110311    110312    110313    110314
    110315    110316    110413    110414    110427    110440    110453    110466
    110479    110624    110625    110626    110627    110628    110629    110630
    110631    110632    110633    110634    110635    110732    110733    110746
    110759    110772    110785    110798    110943    110944    110945    110946
    110947    110948    110949    110950    110951    110952    110953    110954
    111051    111052    111065    111078    111091    111104    111117    111262
$ ... 96 like lines cut
*SET_NODE_LIST
$HMSET
$HMNAME SETS       4Sym Fix Z                                                               
         4       0.0       0.0       0.0       0.0MECH      
    108475    108517    108518    108519    108520    108521    108522    108523
    108524    108525    108526    108527    108528    108529    108530    108531
    108532    108533    108534    108907    108908    108920    108932    108944
    108956    108968    108980    108992    109004    109016    109028    109040
    109107    109108    109109    109110    109111    109112    109226    109227
    109239    109251    109263    109275    109287    109299    109311    109323
    109335    109347    109359    109426    109427    109428    109429    109430
    109431    109545    109546    109558    109570    109582    109594    109606
    109618    109630    109642    109654    109666    109678    109745    109746
    109747    109748    109749    109750    109864    109865    109877    109889
    109901    109913    109925    109937    109949    109961    109973    109985
    109997    110064    110065    110066    110067    110068    110069    110183
    110184    110196    110208    110220    110232    110244    110256    110268
    110280    110292    110304    110316    110383    110384    110385    110386
    110387    110388    110502    110503    110515    110527    110539    110551
    110563    110575    110587    110599    110611    110623    110635    110702
    110703    110704    110705    110706    110707    110821    110822    110834
    110846    110858    110870    110882    110894    110906    110918    110930
    110942    110954    111021    111022    111023    111024    111025    111026
    111140    111141    111153    111165    111177    111189    111201    111213
$ ... 96 like lines cut
*DEFINE_CURVE
$HMNAME CURVES         1Displacement                                                            
$HWCOLOR CURVES         1      11
$HMCURVE     1    2 Displacement                                                                    
         1         0       1.0       1.0       0.0       0.0         0
                 0.0                 0.0
                0.01 5.0000000000000E-04
*END
